LAMMPS (30 Jul 2016)
# Sets up LAMMPS simulation for transient melting of ice: TIP4P/Ice
# Ensure cold thermostats do not move
# Thinbox: 16x1x1
# Defects
# Order param l=2

#### setting MD parameters ####
units real
boundary p p p
atom_style full

# read ice box in restart file
### read the equilibrated NPT restart file

read_restart restart.state
  orthogonal box = (0.352911 0.0190435 0.0179537) to (435.722 23.5122 22.1665)
  20736 atoms
  13824 bonds
  6912 angles

#### force field definition ####
pair_style      lj/cut/tip4p/long 2 1 1 1 0.1577 10.0
pair_modify	tail yes

kspace_style	pppm/tip4p 1.0e-6

bond_style	harmonic
angle_style	harmonic
dihedral_style	none
improper_style	none

bond_coeff	1 450.0 0.9572
angle_coeff	1 55.0 104.52

# reset pair coeff
pair_coeff	* * 0.0 0.0

#OO
pair_coeff	2 2 0.21085 3.1668
#OH
pair_coeff	* 1 0.0000 0.0000

neighbor        2.0 bin
neigh_modify    every 1 delay 1 check no

timestep	2.0
fix		constraints all shake 0.000001 20 0 b 1 a 1

group water type 1 2
20736 atoms in group water

#*********** SIMULATION PARAMETER TO ADJUST ****************
#Box dimensions
variable lx equal lx
variable ly equal ly
variable lz equal lz

### Temperature of the hot and cold regions ####
variable thi equal 375
variable tlo equal 215
variable runpressure equal 0.986923

# Configuration equilibrated in density and temperature

# Define dx here

variable lx equal lx
variable ly equal ly
variable lz equal lz

variable xlo equal xlo
variable xhi equal xhi

variable boxcentre equal 0.352910516842627+(435.722289483159-0.352910516842627)/2

variable dx equal 2.0

#### ADD IN DEFECTS AT THE CENTRE OF THE HOT THERMOSTAT #####
variable y1 equal 23.4931129546749/2.0
variable z1 equal 22.1485926915321/2.0

region kill1 sphere 218.037600000001 11.7465564773374 11.0742963457661 3
delete_atoms region kill1 compress no bond yes mol yes
Deleted 12 atoms, new total = 20724
Deleted 8 bonds, new total = 13816
Deleted 4 angles, new total = 6908
############

variable thip equal 375*2.0/3.0
variable tlop equal 215*2.0/3.0
variable hbl equal 218.037600000001-2
variable hbh equal 218.037600000001+2

#***************************************************
## EQUILIBRATION PERIOD - to reach the steady state ###
#run 0

#reset the timestep to start your production run
reset_timestep 0

# define a group to perform averages
#group s1 type 1
###*** SYSTEM THERMOSTATTING: HOT and COLD regions ***###

fix NVE all nve
fix PRESS all press/berendsen aniso 0.986923 0.986923 500000 couple yz

### Apply THERMOSTATS ###

#set up the "hot region" in the middle of the box
region hot block 216.037600000001 220.037600000001 0 23.4931129546749 0 22.1485926915321 units box

#set up the "cold region" at the left end of the box

#set up the "cold region" at the right end of the box

#Cold regions  unification
#region cold union 2 cold1 cold2 units box

#Create group of cold molecules
####group cool_ice region cold
####group cool_ice include molecule

####compute cold_temp cool_ice temp
####fix_modify cold_rescale temp cold_temp

#this calculates the temperature using only the atoms in the "hot region"
#compute hot_temp all temp/region hot

# calculate the temperature using only WATER in the "hot region"
compute hot_temp water temp/region hot

#this calculates the temperature using only WATER in the "cold region"
#compute cold_temp water temp/region cold

#set up a basic velocity rescale for the hot region WATER with thip
fix hot_rescale water temp/rescale 1 250 250 1.0 1.0
#change the thermostat to only act on the "hot region"
#this is done by passing it the "hot temp" compute that we defined above
fix_modify hot_rescale temp hot_temp

#set up a basic velocity rescale for the cold region
#change the thermostat to only act on the "cold region"
#this is done by passing it the "cold temp" compute that we defined above
#fix_modify cold_rescale temp cold_temp

### Ensure MOMENTUM CONSERVATION ###

#ensure that linear momentum is conserved despite the "thermostatting" by velocity rescaling
fix cons_mom all momentum 1 linear 1 1 1

thermo 100
thermo_style custom step pe etotal temp atoms vol press pxx pyy pzz lx ly lz xlo xhi  f_hot_rescale

group ox type 2
6908 atoms in group ox
group hy type 1
13816 atoms in group hy
compute KE all ke/atom
variable TEMP atom c_KE*4186.8/(1.3806488*6.02214129)

compute cc1 all chunk/atom bin/1d x center 2 units box
#fix TPROFILE all ave/chunk 1 500 500 cc1 v_TEMP density/number file temp.dat
fix TPROFILEox ox ave/chunk 1 500 500 cc1 v_TEMP density/number file temp-ox.dat
fix TPROFILEhy hy ave/chunk 1 500 500 cc1 v_TEMP density/number file temp-hy.dat

compute orderparam ox orientorder/atom degrees 1 2 nnn 4 cutoff 3.5
compute cc2 ox chunk/atom bin/1d x center 2 units box
#fix ORDERPARAM all ave/chunk 1 500 500 cc2 c_orderparam[1] file order-param.dat
fix ORDERPARAM all ave/chunk 1 500 500 cc2 c_orderparam[1] file order-param.dat

restart 50000 config.restart

run 500000
PPPM initialization ...
  extracting TIP4P info from pair style
  G vector (1/distance) = 0.345578
  grid = 405 48 48
  stencil order = 5
  estimated absolute RMS force accuracy = 0.000406389
  estimated relative force accuracy = 1.22383e-06
  3d grid and FFT values/proc = 67260 38880
  2 neighbor list requests
  update every 1 steps, delay 1 steps, check no
Step PotEng TotEng Temp Atoms Volume Press Pxx Pyy Pzz Lx Ly Lz Xlo Xhi hot_resc
0   -103841.58   -94990.584    214.93487    20724    226539.84   -165.74163   -325.60886    -154.3041   -17.311939    435.36938    23.493113    22.148593   0.35291052    435.72229            0
Averages over the last 2501 of 5001 rows, steps 250000 to 500000:
PotEng TotEng Temp Atoms Volume Press Pxx Pyy Pzz Lx Ly Lz Xlo Xhi hot_resc
-94577 -82103.6 302.9 20724 222062 2.69631 3.98323 -3.49121 7.59692 424.233 23.5631 22.2146 5.92095 430.154 -18741
Loop time of 71143.9 on 32 procs for 500000 steps with 20724 atoms

write_data production.R1
PPPM initialization ...
  extracting TIP4P info from pair style
  G vector (1/distance) = 0.345963
  grid = 400 48 48
  stencil order = 5
  estimated absolute RMS force accuracy = 0.000400645
  estimated relative force accuracy = 1.20653e-06
  3d grid and FFT values/proc = 67260 38400
write_restart restartproduction.R1
PPPM initialization ...
  extracting TIP4P info from pair style
  G vector (1/distance) = 0.345963
  grid = 400 48 48
  stencil order = 5
  estimated absolute RMS force accuracy = 0.000400645
  estimated relative force accuracy = 1.20653e-06
  3d grid and FFT values/proc = 67260 38400
