LAMMPS (30 Jul 2016)
# Sets up LAMMPS simulation for transient melting of ice: TIP4P/Ice
# Ensure cold thermostats do not move
# Thinbox: 16x1x1
# Defects
# Order param l=2

#### setting MD parameters ####
units real
boundary p p p
atom_style full

# read ice box in restart file
#read_data ice-ih-restart.data
read_restart restart.state
  orthogonal box = (0.243566 0.0131431 0.0123909) to (435.832 23.5181 22.1721)
  20736 atoms
  13824 bonds
  6912 angles

#replicate 16 boxes, 16x1x1

#### force field definition ####
pair_style      lj/cut/tip4p/long 2 1 1 1 0.1577 10.0
pair_modify	tail yes

kspace_style	pppm/tip4p 1.0e-6

bond_style	harmonic
angle_style	harmonic
dihedral_style	none
improper_style	none

bond_coeff	1 450.0 0.9572
angle_coeff	1 55.0 104.52

# reset pair coeff
pair_coeff	* * 0.0 0.0

#OO
pair_coeff	2 2 0.21085 3.1668
#OH
pair_coeff	* 1 0.0000 0.0000

neighbor        2.0 bin
neigh_modify    every 1 delay 1 check no

timestep	2.0
fix		constraints all shake 0.000001 20 0 b 1 a 1

group water type 1 2
20736 atoms in group water

#*********** SIMULATION PARAMETER TO ADJUST ****************
#Box dimensions
variable lx equal lx
variable ly equal ly
variable lz equal lz

### Temperature of the hot and cold regions ####
variable thi equal 375
variable tlo equal 215
variable runpressure equal 0.986923
# Configuration equilibrated in density and temperature

# Define dx here

variable lx equal lx
variable ly equal ly
variable lz equal lz

variable xlo equal xlo
variable xhi equal xhi

variable dx equal 2.0

### ADD IN DEFECTS AT THE CENTRE OF THE HOT THERMOSTAT ###
variable x1 equal 435.588068755598/4.0
variable y1 equal 23.5049137476792/2.0
variable z1 equal 22.1597181204267/2.0

region kill1 sphere 108.897017188899 11.7524568738396 11.0798590602133 3
delete_atoms region kill1 compress no bond yes mol yes
Deleted 15 atoms, new total = 20721
Deleted 10 bonds, new total = 13814
Deleted 5 angles, new total = 6907

variable thip equal 375*2.0/3.0
variable tlop equal 215*2.0/3.0
variable cbl equal 435.588068755598*3.0/4.0-2
variable cbh equal 435.588068755598*3.0/4.0+2
variable hbl equal 435.588068755598*1.0/4.0-2
variable hbh equal 435.588068755598*1.0/4.0+2

#***************************************************
## EQUILIBRATION PERIOD - to reach the steady state ###
#run 0

#reset the timestep to start your production run
reset_timestep 0

# define a group to perform averages
#group s1 type 1
###*** SYSTEM THERMOSTATTING: HOT and COLD regions ***###

fix NVE all nve
fix PRESS all press/berendsen aniso 0.986923 0.986923 500000 couple yz

### Apply THERMOSTATS ###

#set up the "hot region" in the middle of the box
region hot block 106.897017188899 110.897017188899 0 23.5049137476792 0 22.1597181204267 units box

#set up the "cold region" at the left end of the box
region cold block 324.691051566698 328.691051566698 0 23.5049137476792 0 22.1597181204267 units box

#set up the "cold region" at the right end of the box

#Cold regions  unification
#region cold union 2 cold1 cold2 units box

#Create group of cold molecules
####group cool_ice region cold
####group cool_ice include molecule

####compute cold_temp cool_ice temp
####fix_modify cold_rescale temp cold_temp

#this calculates the temperature using only the atoms in the "hot region"
#compute hot_temp all temp/region hot

# calculate the temperature using only WATER in the "hot region"
compute hot_temp water temp/region hot

#this calculates the temperature using only WATER in the "cold region"
compute cold_temp water temp/region cold

#set up a basic velocity rescale for the hot region WATER with thip
fix hot_rescale water temp/rescale 1 250 250 1.0 1.0
#change the thermostat to only act on the "hot region"
#this is done by passing it the "hot temp" compute that we defined above
fix_modify hot_rescale temp hot_temp

#set up a basic velocity rescale for the cold region
fix cold_rescale water temp/rescale 1 143.333333333333 143.333333333333 1.0 1.0
#change the thermostat to only act on the "cold region"
#this is done by passing it the "cold temp" compute that we defined above
fix_modify cold_rescale temp cold_temp

### Ensure MOMENTUM CONSERVATION ###

#ensure that linear momentum is conserved despite the "thermostatting" by velocity rescaling
fix cons_mom all momentum 1 linear 1 1 1

thermo 100
thermo_style custom step pe etotal temp atoms vol press pxx pyy pzz lx ly lz xlo xhi f_cold_rescale f_hot_rescale

group ox type 2
6907 atoms in group ox
group hy type 1
13814 atoms in group hy
compute KE all ke/atom
variable TEMP atom c_KE*4186.8/(1.3806488*6.02214129)

compute cc1 all chunk/atom bin/1d x center 2 units box
#fix TPROFILE all ave/chunk 1 500 500 cc1 v_TEMP density/number file temp.dat
fix TPROFILEox ox ave/chunk 1 500 500 cc1 v_TEMP density/number file temp-ox.dat
fix TPROFILEhy hy ave/chunk 1 500 500 cc1 v_TEMP density/number file temp-hy.dat

compute orderparam ox orientorder/atom degrees 1 2 nnn 4 cutoff 3.5
compute cc2 ox chunk/atom bin/1d x center 2 units box
#fix ORDERPARAM all ave/chunk 1 500 500 cc2 c_orderparam[1] file order-param.dat
fix ORDERPARAM all ave/chunk 1 500 500 cc2 c_orderparam[1] file order-param.dat

restart 50000 config.restart

run 500000
PPPM initialization ...
  extracting TIP4P info from pair style
  G vector (1/distance) = 0.345548
  grid = 405 48 48
  stencil order = 5
  estimated absolute RMS force accuracy = 0.000406942
  estimated relative force accuracy = 1.22549e-06
  3d grid and FFT values/proc = 67260 38880
  2 neighbor list requests
  update every 1 steps, delay 1 steps, check no
Step PotEng TotEng Temp Atoms Volume Press Pxx Pyy Pzz Lx Ly Lz Xlo Xhi cold_res hot_resc
0   -103776.85   -94945.445    214.49035    20721    226881.39   -149.06127   -60.806014   -265.33942   -121.03838    435.58807    23.504914    22.159718   0.24356562    435.83163            0            0
Averages over the last 2501 of 5001 rows, steps 250000 to 500000:
PotEng TotEng Temp Atoms Volume Press Pxx Pyy Pzz Lx Ly Lz Xlo Xhi cold_res hot_resc
-96380.6 -84883.6 279.231 20721 221822 3.25896 2.88008 3.60242 3.2944 425.109 23.5261 22.1797 5.483 430.592 3819.14 -19518.9
Loop time of 70717.3 on 32 procs for 500000 steps with 20721 atoms

write_data production.R1
PPPM initialization ...
  extracting TIP4P info from pair style
  G vector (1/distance) = 0.345865
  grid = 400 48 48
  stencil order = 5
  estimated absolute RMS force accuracy = 0.000402747
  estimated relative force accuracy = 1.21286e-06
  3d grid and FFT values/proc = 67260 38400
write_restart restartproduction.R1
PPPM initialization ...
  extracting TIP4P info from pair style
  G vector (1/distance) = 0.345865
  grid = 400 48 48
  stencil order = 5
  estimated absolute RMS force accuracy = 0.000402747
  estimated relative force accuracy = 1.21286e-06
  3d grid and FFT values/proc = 67260 38400
